[TITLE]

[JUNCTIONS]
;ID                      Elevation       Demand Pattern                 
 J1                       32.80839895               0                            ;
 J2                       32.80839895               0                            ;
 J3                       32.80839895               0                            ;
 J4                       32.80839895               0                            ;
 J5                       32.80839895               0                            ;
 J6                       32.80839895               0                            ;
 J7                       32.80839895               0                            ;
 J8                       32.80839895               0                            ;
 JS1-1                    32.80839895               0                            ;
 JS2-1                    32.80839895               0                            ;
 JS3-1                    32.80839895               0                            ;
 JS4-1                    32.80839895               0                            ;
 JS5-1                    32.80839895               0                            ;
 JS6-1                    32.80839895               0                            ;
 JS7-1                    32.80839895               0                            ;
 JS8-1                    32.80839895               0                            ;
 JS8-2                    32.80839895               0                            ;
 JS8-3                    32.80839895               0                            ;
 JS8-4                    32.80839895               0                            ;
 JS8-5                    32.80839895               0                            ;
 JS1-2                    32.80839895               0                            ;
 JS1-3                    32.80839895               0                            ;
 JS1-4                    32.80839895               0                            ;
 JS1-5                    32.80839895               0                            ;
 JS2-2                    32.80839895               0                            ;
 JS2-3                    32.80839895               0                            ;
 JS2-4                    32.80839895               0                            ;
 JS2-5                    32.80839895               0                            ;
 JS3-2                    32.80839895               0                            ;
 JS3-3                    32.80839895               0                            ;
 JS3-4                    32.80839895               0                            ;
 JS3-5                    32.80839895               0                            ;
 JS4-2                    32.80839895               0                            ;
 JS4-3                    32.80839895               0                            ;
 JS4-4                    32.80839895               0                            ;
 JS4-5                    32.80839895               0                            ;
 JS5-2                    32.80839895               0                            ;
 JS5-3                    32.80839895               0                            ;
 JS5-4                    32.80839895               0                            ;
 JS5-5                    32.80839895               0                            ;
 JS6-2                    32.80839895               0                            ;
 JS6-3                    32.80839895               0                            ;
 JS6-4                    32.80839895               0                            ;
 JS6-5                    32.80839895               0                            ;
 JS7-2                    32.80839895               0                            ;
 JS7-3                    32.80839895               0                            ;
 JS7-4                    32.80839895               0                            ;
 JS7-5                    32.80839895               0                            ;

[RESERVOIRS]
;ID                                   Head                  Pattern
 R1                       328.0839895                            ;

[TANKS]
;ID                              Elevation           Init Level            Min Level            Max Level             Diameter           Min Volume Volume Curve         Overflow            

[PIPES]
;ID                   Node1                Node2                              Length             Diameter            Roughness           Minor Loss               Status
 PR1                  R1                   J1                      164.04199475    11.811023622             100               0                 Open   ;
 PR2                  R1                   J3                      164.04199475    11.811023622             100               0                 Open   ;
 PR3                  R1                   J5                      164.04199475    11.811023622             100               0                 Open   ;
 PR4                  R1                   J7                      164.04199475    11.811023622             100               0                 Open   ;
 P2                   J1                   J2                      164.04199475    11.811023622             100               0                 Open   ;
 P3                   J2                   J3                      164.04199475    11.811023622             100               0                 Open   ;
 P4                   J3                   J4                      164.04199475    11.811023622             100               0                 Open   ;
 P5                   J4                   J5                      164.04199475    11.811023622             100               0                 Open   ;
 P6                   J5                   J6                      164.04199475    11.811023622             100               0                 Open   ;
 P7                   J6                   J7                      164.04199475    11.811023622             100               0                 Open   ;
 P8                   J7                   J8                      164.04199475    11.811023622             100               0                 Open   ;
 P9                   J8                   J1                      164.04199475    11.811023622             100               0                 Open   ;
 PS1                  J1                   JS1-1                   164.04199475    11.811023622             100               0                 Open   ;
 PS2                  J2                   JS2-1                   164.04199475    11.811023622             100               0                 Open   ;
 PS3                  J3                   JS3-1                   164.04199475    11.811023622             100               0                 Open   ;
 PS4                  JS4-1                J4                      164.04199475    11.811023622             100               0                 Open   ;
 PS5                  J5                   JS5-1                   164.04199475    11.811023622             100               0                 Open   ;
 PS6                  J6                   JS6-1                   164.04199475    11.811023622             100               0                 Open   ;
 PS7                  J7                   JS7-1                   164.04199475    11.811023622             100               0                 Open   ;
 PS8                  J8                   JS8-1                   164.04199475    11.811023622             100               0                 Open   ;
 PS8-1                JS8-1                JS8-2                   164.04199475    11.811023622             100               0                 Open   ;
 PS8-2                JS8-1                JS8-3                   164.04199475    11.811023622             100               0                 Open   ;
 PS8-3                JS8-1                JS8-4                   164.04199475    11.811023622             100               0                 Open   ;
 PS8-4                JS8-3                JS8-4                   164.04199475    11.811023622             100               0                 Open   ;
 PS8-5                JS8-2                JS8-3                   164.04199475    11.811023622             100               0                 Open   ;
 PS8-6                JS8-5                JS8-2                   164.04199475    11.811023622             100               0                 Open   ;
 PS8-7                JS8-5                JS8-3                   164.04199475    11.811023622             100               0                 Open   ;
 PS8-8                JS8-5                JS8-4                   164.04199475    11.811023622             100               0                 Open   ;
 PS1-1                JS1-1                JS1-2                   164.04199475    11.811023622             100               0                 Open   ;
 PS1-2                JS1-1                JS1-3                   164.04199475    11.811023622             100               0                 Open   ;
 PS1-3                JS1-1                JS1-4                   164.04199475    11.811023622             100               0                 Open   ;
 PS1-4                JS1-3                JS1-4                   164.04199475    11.811023622             100               0                 Open   ;
 PS1-5                JS1-2                JS1-3                   164.04199475    11.811023622             100               0                 Open   ;
 PS1-6                JS1-5                JS1-2                   164.04199475    11.811023622             100               0                 Open   ;
 PS1-7                JS1-5                JS1-3                   164.04199475    11.811023622             100               0                 Open   ;
 PS1-8                JS1-5                JS1-4                   164.04199475    11.811023622             100               0                 Open   ;
 PS2-1                JS2-1                JS2-2                   164.04199475    11.811023622             100               0                 Open   ;
 PS2-2                JS2-1                JS2-3                   164.04199475    11.811023622             100               0                 Open   ;
 PS2-3                JS2-1                JS2-4                   164.04199475    11.811023622             100               0                 Open   ;
 PS2-4                JS2-3                JS2-4                   164.04199475    11.811023622             100               0                 Open   ;
 PS2-5                JS2-2                JS2-3                   164.04199475    11.811023622             100               0                 Open   ;
 PS2-6                JS2-5                JS2-2                   164.04199475    11.811023622             100               0                 Open   ;
 PS2-7                JS2-5                JS2-3                   164.04199475    11.811023622             100               0                 Open   ;
 PS2-8                JS2-5                JS2-4                   164.04199475    11.811023622             100               0                 Open   ;
 PS3-1                JS3-1                JS3-2                   164.04199475    11.811023622             100               0                 Open   ;
 PS3-2                JS3-1                JS3-3                   164.04199475    11.811023622             100               0                 Open   ;
 PS3-3                JS3-1                JS3-4                   164.04199475    11.811023622             100               0                 Open   ;
 PS3-4                JS3-3                JS3-4                   164.04199475    11.811023622             100               0                 Open   ;
 PS3-5                JS3-2                JS3-3                   164.04199475    11.811023622             100               0                 Open   ;
 PS3-6                JS3-5                JS3-2                   164.04199475    11.811023622             100               0                 Open   ;
 PS3-7                JS3-5                JS3-3                   164.04199475    11.811023622             100               0                 Open   ;
 PS3-8                JS3-5                JS3-4                   164.04199475    11.811023622             100               0                 Open   ;
 PS4-1                JS4-1                JS4-2                   164.04199475    11.811023622             100               0                 Open   ;
 PS4-2                JS4-1                JS4-3                   164.04199475    11.811023622             100               0                 Open   ;
 PS4-3                JS4-1                JS4-4                   164.04199475    11.811023622             100               0                 Open   ;
 PS4-4                JS4-3                JS4-4                   164.04199475    11.811023622             100               0                 Open   ;
 PS4-5                JS4-2                JS4-3                   164.04199475    11.811023622             100               0                 Open   ;
 PS4-6                JS4-5                JS4-2                   164.04199475    11.811023622             100               0                 Open   ;
 PS4-7                JS4-5                JS4-3                   164.04199475    11.811023622             100               0                 Open   ;
 PS4-8                JS4-5                JS4-4                   164.04199475    11.811023622             100               0                 Open   ;
 PS5-1                JS5-1                JS5-2                   164.04199475    11.811023622             100               0                 Open   ;
 PS5-2                JS5-1                JS5-3                   164.04199475    11.811023622             100               0                 Open   ;
 PS5-3                JS5-1                JS5-4                   164.04199475    11.811023622             100               0                 Open   ;
 PS5-4                JS5-3                JS5-4                   164.04199475    11.811023622             100               0                 Open   ;
 PS5-5                JS5-2                JS5-3                   164.04199475    11.811023622             100               0                 Open   ;
 PS5-6                JS5-5                JS5-2                   164.04199475    11.811023622             100               0                 Open   ;
 PS5-7                JS5-5                JS5-3                   164.04199475    11.811023622             100               0                 Open   ;
 PS5-8                JS5-5                JS5-4                   164.04199475    11.811023622             100               0                 Open   ;
 PS6-1                JS6-1                JS6-2                   164.04199475    11.811023622             100               0                 Open   ;
 PS6-2                JS6-1                JS6-3                   164.04199475    11.811023622             100               0                 Open   ;
 PS6-3                JS6-1                JS6-4                   164.04199475    11.811023622             100               0                 Open   ;
 PS6-4                JS6-3                JS6-4                   164.04199475    11.811023622             100               0                 Open   ;
 PS6-5                JS6-2                JS6-3                   164.04199475    11.811023622             100               0                 Open   ;
 PS6-6                JS6-5                JS6-2                   164.04199475    11.811023622             100               0                 Open   ;
 PS6-7                JS6-5                JS6-3                   164.04199475    11.811023622             100               0                 Open   ;
 PS6-8                JS6-5                JS6-4                   164.04199475    11.811023622             100               0                 Open   ;
 PS7-1                JS7-1                JS7-2                   164.04199475    11.811023622             100               0                 Open   ;
 PS7-2                JS7-1                JS7-3                   164.04199475    11.811023622             100               0                 Open   ;
 PS7-3                JS7-1                JS7-4                   164.04199475    11.811023622             100               0                 Open   ;
 PS7-4                JS7-3                JS7-4                   164.04199475    11.811023622             100               0                 Open   ;
 PS7-5                JS7-2                JS7-3                   164.04199475    11.811023622             100               0                 Open   ;
 PS7-6                JS7-5                JS7-2                   164.04199475    11.811023622             100               0                 Open   ;
 PS7-7                JS7-5                JS7-3                   164.04199475    11.811023622             100               0                 Open   ;
 PS7-8                JS7-5                JS7-4                   164.04199475    11.811023622             100               0                 Open   ;

[PUMPS]
;ID                   Node1                Node2                Properties          

[VALVES]
;ID                   Node1                Node2                            Diameter Type              Setting           Minor Loss

[TAGS]
;type      name       tag       

[DEMANDS]
;ID        Demand     Pattern   

[STATUS]
;ID        Setting   

[PATTERNS]
;ID        Multipliers

[CURVES]
;ID         X-Value      Y-Value     

[CONTROLS]

[RULES]

[ENERGY]
GLOBAL PRICE           0.0000

[EMITTERS]
;ID        Flow coefficient

[QUALITY]

[SOURCES]
;Node      Type       Quality    Pattern   

[REACTIONS]
;Type           Pipe/Tank               Coefficient

 ORDER BULK 1
 ORDER TANK 1
 ORDER WALL 1
 GLOBAL BULK 0.0000    
 GLOBAL WALL 0.0000    

[MIXING]
;Tank ID             Model Fraction

[TIMES]
DURATION             00:00:00
HYDRAULIC TIMESTEP   01:00:00
QUALITY TIMESTEP     00:06:00
PATTERN TIMESTEP     01:00:00
PATTERN START        00:00:00
REPORT TIMESTEP      01:00:00
REPORT START         00:00:00
START CLOCKTIME      00:00:00 AM
RULE TIMESTEP        00:06:00
STATISTIC            NONE      

[REPORT]

[OPTIONS]
UNITS                GPM                 
HEADLOSS             H-W                 
SPECIFIC GRAVITY     1
VISCOSITY            1
TRIALS               200
ACCURACY             0.001
CHECKFREQ            2
MAXCHECK             10
UNBALANCED           STOP                
PATTERN              1                   
DEMAND MULTIPLIER    1
DEMAND MODEL         PDA
MINIMUM PRESSURE     0.00
REQUIRED PRESSURE    0.10
PRESSURE EXPONENT    0.5
EMITTER EXPONENT     0.5
QUALITY              NONE                
DIFFUSIVITY          1
TOLERANCE            0.01

[COORDINATES]
;Node      X-Coord    Y-Coord   
R1                  0.000000000          0.000000000
J1                  0.000000000         25.000000000
J2                 25.000000000         25.000000000
J3                 25.000000000          0.000000000
J4                 25.000000000        -25.000000000
J5                  0.000000000        -25.000000000
J6                -25.000000000        -25.000000000
J7                -25.000000000          0.000000000
J8                -25.000000000         25.000000000
JS1-1               0.000000000         50.000000000
JS2-1              50.000000000         50.000000000
JS3-1              50.000000000          0.000000000
JS4-1              50.000000000        -50.000000000
JS5-1               0.000000000        -50.000000000
JS6-1             -50.000000000        -50.000000000
JS7-1             -50.000000000          0.000000000
JS8-1             -50.000000000         50.000000000
JS8-2             -45.000000000         55.000000000
JS8-3             -50.000000000         55.000000000
JS8-4             -55.000000000         55.000000000
JS8-5             -50.000000000         60.000000000
JS1-2              -5.000000000         55.000000000
JS1-3               0.000000000         55.000000000
JS1-4               5.000000000         55.000000000
JS1-5               0.000000000         60.000000000
JS2-2              45.000000000         55.000000000
JS2-3              50.000000000         55.000000000
JS2-4              55.000000000         55.000000000
JS2-5              50.000000000         60.000000000
JS3-2              55.000000000          5.000000000
JS3-3              55.000000000          0.000000000
JS3-4              55.000000000         -5.000000000
JS3-5              60.000000000          0.000000000
JS4-2              45.000000000        -55.000000000
JS4-3              50.000000000        -55.000000000
JS4-4              55.000000000        -55.000000000
JS4-5              50.000000000        -60.000000000
JS5-2              -5.000000000        -55.000000000
JS5-3               0.000000000        -55.000000000
JS5-4               5.000000000        -55.000000000
JS5-5               0.000000000        -60.000000000
JS6-2             -55.000000000        -55.000000000
JS6-3             -50.000000000        -55.000000000
JS6-4             -45.000000000        -55.000000000
JS6-5             -50.000000000        -60.000000000
JS7-2             -55.000000000         -5.000000000
JS7-3             -55.000000000          0.000000000
JS7-4             -55.000000000          5.000000000
JS7-5             -60.000000000          0.000000000

[VERTICES]
;Link      X-Coord    Y-Coord   

[LABELS]

[BACKDROP]
UNITS    NONE

[END]
